<routes>
            <route id="r00_tl" edges="t_gen t_in_end t_in l_out l_out_end l_disap" />
            <route id="r01_tb" edges="t_gen t_in_end t_in b_out b_out_end b_disap" /> 
            <route id="r02_tr" edges="t_gen t_in_end t_in r_out r_out_end r_disap" />
            <route id="r03_rt" edges="r_gen r_in_end r_in t_out t_out_end t_disap" />
            <route id="r04_rl" edges="r_gen r_in_end r_in l_out l_out_end l_disap" />
            <route id="r05_rb" edges="r_gen r_in_end r_in b_out b_out_end b_disap" />
            <route id="r06_br" edges="b_gen b_in_end b_in r_out r_out_end r_disap" />
            <route id="r07_bt" edges="b_gen b_in_end b_in t_out t_out_end t_disap" />
            <route id="r08_bl" edges="b_gen b_in_end b_in l_out l_out_end l_disap" />
            <route id="r09_lb" edges="l_gen l_in_end l_in b_out b_out_end b_disap" />
            <route id="r10_lr" edges="l_gen l_in_end l_in r_out r_out_end r_disap" />
            <route id="r11_lt" edges="l_gen l_in_end l_in t_out t_out_end t_disap" />
            
</routes>
